
     RDKit          3D

 40 42  0  0  0  0  0  0  0  0999 V2000
   11.2660   12.3440   15.5490 C   0  0  0  0  0  0  0  0  0  0  0  0
   10.4030   11.8420   16.5300 C   0  0  0  0  0  0  0  0  0  0  0  0
   10.7070   12.8930   14.2930 C   0  0  0  0  0  0  0  0  0  0  0  0
    9.3450   12.8310   14.0500 C   0  0  0  0  0  0  0  0  0  0  0  0
   10.1570   10.6920   22.4760 C   0  0  0  0  0  0  0  0  0  0  0  0
   10.1590   12.9700   21.4410 C   0  0  0  0  0  0  0  0  0  0  0  0
   10.2760   11.5810   21.2870 C   0  0  0  0  0  0  0  0  0  0  0  0
   10.5090   11.0270   20.0190 C   0  0  0  0  0  0  0  0  0  0  0  0
   10.5890   11.8570   18.8900 C   0  0  0  0  0  0  0  0  0  0  0  0
   10.4620   13.2440   19.0390 C   0  0  0  0  0  0  0  0  0  0  0  0
   12.7740   12.3270   15.7640 C   0  0  0  0  0  0  0  0  0  0  0  0
    8.9480   11.8160   16.2330 C   0  0  0  0  0  0  0  0  0  0  0  0
    6.4810    8.9810   15.6840 C   0  0  0  0  0  0  0  0  0  0  0  0
    7.1630   10.5630   13.7800 C   0  0  0  0  0  0  0  0  0  0  0  0
    7.1120   11.8890   14.5180 C   0  0  0  0  0  0  0  0  0  0  0  0
    7.0980    8.3720   13.3130 C   0  0  0  0  0  0  0  0  0  0  0  0
   10.2530   13.8000   20.3110 C   0  0  0  0  0  0  0  0  0  0  0  0
   13.4460   12.6440   14.6150 F   0  0  0  0  0  0  0  0  0  0  0  0
   10.0580   10.0680   23.3700 N   0  0  0  0  0  0  0  0  0  0  0  0
   10.8960   11.2620   17.6810 O   0  0  0  0  0  0  0  0  0  0  0  0
   10.1230   15.5160   20.5140 Cl  0  0  0  0  0  0  0  0  0  0  0  0
    8.4610   12.2600   14.9860 N   0  0  0  0  0  0  0  0  0  0  0  0
   13.1720   11.0860   16.1460 F   0  0  0  0  0  0  0  0  0  0  0  0
   13.0990   13.2400   16.7280 F   0  0  0  0  0  0  0  0  0  0  0  0
    8.1590   11.3740   17.0750 O   0  0  0  0  0  0  0  0  0  0  0  0
    7.5530   10.4740   12.5250 N   0  0  0  0  0  0  0  0  0  0  0  0
    7.5320    9.1110   12.2340 N   0  0  0  0  0  0  0  0  0  0  0  0
    6.8490    9.3040   14.2810 N   0  0  0  0  0  0  0  0  0  0  0  0
    7.0010    7.1560   13.3870 O   0  0  0  0  0  0  0  0  0  0  0  0
   11.3440   13.3300   13.5360 H   0  0  0  0  0  0  0  0  0  0  0  0
    8.9670   13.2110   13.1110 H   0  0  0  0  0  0  0  0  0  0  0  0
   10.0020   13.4110   22.4160 H   0  0  0  0  0  0  0  0  0  0  0  0
   10.6470    9.9600   19.9080 H   0  0  0  0  0  0  0  0  0  0  0  0
   10.5660   13.9150   18.1970 H   0  0  0  0  0  0  0  0  0  0  0  0
    5.9090    9.7930   16.1320 H   0  0  0  0  0  0  0  0  0  0  0  0
    5.8500    8.0930   15.7140 H   0  0  0  0  0  0  0  0  0  0  0  0
    7.3760    8.7970   16.2790 H   0  0  0  0  0  0  0  0  0  0  0  0
    6.7400   12.6580   13.8420 H   0  0  0  0  0  0  0  0  0  0  0  0
    6.4100   11.8330   15.3500 H   0  0  0  0  0  0  0  0  0  0  0  0
    7.5050    8.7500   11.2780 H   0  0  0  0  0  0  0  0  0  0  0  0
 27 26  1  0
 27 16  1  0
 26 14  2  0
  4  3  2  0
  4 22  1  0
  3  1  1  0
 16 29  2  0
 16 28  1  0
 24 11  1  0
 14 15  1  0
 14 28  1  0
 15 22  1  0
 28 13  1  0
 22 12  1  0
  1 11  1  0
  1  2  2  0
 11 18  1  0
 11 23  1  0
 12  2  1  0
 12 25  2  0
  2 20  1  0
 20  9  1  0
  9 10  2  0
  9  8  1  0
 10 17  1  0
  8  7  2  0
 17 21  1  0
 17  6  2  0
  7  6  1  0
  7  5  1  0
  5 19  3  0
  3 30  1  0
  4 31  1  0
  6 32  1  0
  8 33  1  0
 10 34  1  0
 13 35  1  0
 13 36  1  0
 13 37  1  0
 15 38  1  0
 15 39  1  0
 27 40  1  0
M  END
$$$$
