
     RDKit          3D

 40 42  0  0  0  0  0  0  0  0999 V2000
   11.3590   12.5890   15.4290 C   0  0  0  0  0  0  0  0  0  0  0  0
   10.4630   12.2850   16.4520 C   0  0  0  0  0  0  0  0  0  0  0  0
   10.8500   13.1690   14.1640 C   0  0  0  0  0  0  0  0  0  0  0  0
    9.4880   13.3100   13.9650 C   0  0  0  0  0  0  0  0  0  0  0  0
    9.9500   11.1020   22.3040 C   0  0  0  0  0  0  0  0  0  0  0  0
   10.2710   13.3530   21.3770 C   0  0  0  0  0  0  0  0  0  0  0  0
   10.1790   11.9620   21.1950 C   0  0  0  0  0  0  0  0  0  0  0  0
   10.3510   11.4200   19.9110 C   0  0  0  0  0  0  0  0  0  0  0  0
   10.6010   12.2590   18.8120 C   0  0  0  0  0  0  0  0  0  0  0  0
   10.7040   13.6520   19.0080 C   0  0  0  0  0  0  0  0  0  0  0  0
   12.8450   12.3300   15.5980 C   0  0  0  0  0  0  0  0  0  0  0  0
    8.9970   12.4570   16.2030 C   0  0  0  0  0  0  0  0  0  0  0  0
    6.3700    9.9570   15.6930 C   0  0  0  0  0  0  0  0  0  0  0  0
    6.9470   11.5240   13.7510 C   0  0  0  0  0  0  0  0  0  0  0  0
    7.1400   12.8100   14.5320 C   0  0  0  0  0  0  0  0  0  0  0  0
    6.6930    9.3520   13.2650 C   0  0  0  0  0  0  0  0  0  0  0  0
   10.5290   14.1980   20.2890 C   0  0  0  0  0  0  0  0  0  0  0  0
   13.5040   12.4410   14.4070 F   0  0  0  0  0  0  0  0  0  0  0  0
    9.8040   10.3480   23.2140 N   0  0  0  0  0  0  0  0  0  0  0  0
   10.9190   11.6630   17.6010 O   0  0  0  0  0  0  0  0  0  0  0  0
   10.6950   15.8920   20.5600 Cl  0  0  0  0  0  0  0  0  0  0  0  0
    8.5620   12.9370   14.9460 N   0  0  0  0  0  0  0  0  0  0  0  0
   13.0590   11.0630   16.0580 F   0  0  0  0  0  0  0  0  0  0  0  0
   13.3700   13.2410   16.4760 F   0  0  0  0  0  0  0  0  0  0  0  0
    8.1880   12.1560   17.0560 O   0  0  0  0  0  0  0  0  0  0  0  0
    7.2100   11.4340   12.4600 N   0  0  0  0  0  0  0  0  0  0  0  0
    7.0180   10.0880   12.1520 N   0  0  0  0  0  0  0  0  0  0  0  0
    6.5600   10.2830   14.2610 N   0  0  0  0  0  0  0  0  0  0  0  0
    6.6450    8.1320   13.3610 O   0  0  0  0  0  0  0  0  0  0  0  0
   11.5210   13.4660   13.3700 H   0  0  0  0  0  0  0  0  0  0  0  0
    9.1400   13.6970   13.0170 H   0  0  0  0  0  0  0  0  0  0  0  0
   10.1370   13.7680   22.3660 H   0  0  0  0  0  0  0  0  0  0  0  0
   10.2890   10.3540   19.7370 H   0  0  0  0  0  0  0  0  0  0  0  0
   11.0320   14.3040   18.2090 H   0  0  0  0  0  0  0  0  0  0  0  0
    5.8910   10.7810   16.2220 H   0  0  0  0  0  0  0  0  0  0  0  0
    5.7170    9.0900   15.8010 H   0  0  0  0  0  0  0  0  0  0  0  0
    7.3270    9.7310   16.1630 H   0  0  0  0  0  0  0  0  0  0  0  0
    6.8730   13.6600   13.9050 H   0  0  0  0  0  0  0  0  0  0  0  0
    6.4800   12.8430   15.3990 H   0  0  0  0  0  0  0  0  0  0  0  0
    7.2200    9.6580   11.2460 H   0  0  0  0  0  0  0  0  0  0  0  0
 27 26  1  0
 27 16  1  0
 26 14  2  0
  4  3  2  0
  4 22  1  0
  3  1  1  0
 16 29  2  0
 16 28  1  0
 24 11  1  0
 14 15  1  0
 14 28  1  0
 15 22  1  0
 28 13  1  0
 22 12  1  0
  1 11  1  0
  1  2  2  0
 11 18  1  0
 11 23  1  0
 12  2  1  0
 12 25  2  0
  2 20  1  0
 20  9  1  0
  9 10  2  0
  9  8  1  0
 10 17  1  0
  8  7  2  0
 17 21  1  0
 17  6  2  0
  7  6  1  0
  7  5  1  0
  5 19  3  0
  3 30  1  0
  4 31  1  0
  6 32  1  0
  8 33  1  0
 10 34  1  0
 13 35  1  0
 13 36  1  0
 13 37  1  0
 15 38  1  0
 15 39  1  0
 27 40  1  0
M  END
$$$$
