
     RDKit          3D

 40 42  0  0  0  0  0  0  0  0999 V2000
   11.4620   12.5860   15.4890 C   0  0  0  0  0  0  0  0  0  0  0  0
   10.5630   12.2710   16.5060 C   0  0  0  0  0  0  0  0  0  0  0  0
   10.9450   13.0980   14.1960 C   0  0  0  0  0  0  0  0  0  0  0  0
    9.5840   13.1920   13.9740 C   0  0  0  0  0  0  0  0  0  0  0  0
    9.7390   11.2630   22.3400 C   0  0  0  0  0  0  0  0  0  0  0  0
   10.2130   13.4940   21.3880 C   0  0  0  0  0  0  0  0  0  0  0  0
   10.0780   12.1070   21.2180 C   0  0  0  0  0  0  0  0  0  0  0  0
   10.3140   11.5320   19.9580 C   0  0  0  0  0  0  0  0  0  0  0  0
   10.6800   12.3380   18.8650 C   0  0  0  0  0  0  0  0  0  0  0  0
   10.8370   13.7270   19.0470 C   0  0  0  0  0  0  0  0  0  0  0  0
   12.9490   12.3610   15.6810 C   0  0  0  0  0  0  0  0  0  0  0  0
    9.0970   12.3740   16.2250 C   0  0  0  0  0  0  0  0  0  0  0  0
    6.5810    9.7590   15.6480 C   0  0  0  0  0  0  0  0  0  0  0  0
    7.0550   11.3970   13.7330 C   0  0  0  0  0  0  0  0  0  0  0  0
    7.2330   12.6720   14.5360 C   0  0  0  0  0  0  0  0  0  0  0  0
    6.8110    9.2330   13.1940 C   0  0  0  0  0  0  0  0  0  0  0  0
   10.5990   14.3020   20.3060 C   0  0  0  0  0  0  0  0  0  0  0  0
   13.6590   12.6680   14.5480 F   0  0  0  0  0  0  0  0  0  0  0  0
    9.5090   10.5630   23.2310 N   0  0  0  0  0  0  0  0  0  0  0  0
   11.0230   11.7020   17.6780 O   0  0  0  0  0  0  0  0  0  0  0  0
   10.8360   15.9940   20.5440 Cl  0  0  0  0  0  0  0  0  0  0  0  0
    8.6590   12.8180   14.9530 N   0  0  0  0  0  0  0  0  0  0  0  0
   13.1750   11.0510   15.9700 F   0  0  0  0  0  0  0  0  0  0  0  0
   13.4160   13.1390   16.7020 F   0  0  0  0  0  0  0  0  0  0  0  0
    8.2910   12.0340   17.0710 O   0  0  0  0  0  0  0  0  0  0  0  0
    7.2740   11.3470   12.4330 N   0  0  0  0  0  0  0  0  0  0  0  0
    7.0850   10.0070   12.0920 N   0  0  0  0  0  0  0  0  0  0  0  0
    6.7100   10.1350   14.2210 N   0  0  0  0  0  0  0  0  0  0  0  0
    6.7870    8.0130   13.2500 O   0  0  0  0  0  0  0  0  0  0  0  0
   11.6150   13.3840   13.3960 H   0  0  0  0  0  0  0  0  0  0  0  0
    9.2370   13.5390   13.0100 H   0  0  0  0  0  0  0  0  0  0  0  0
   10.0510   13.9440   22.3590 H   0  0  0  0  0  0  0  0  0  0  0  0
   10.2460   10.4610   19.8240 H   0  0  0  0  0  0  0  0  0  0  0  0
   11.1890   14.3480   18.2340 H   0  0  0  0  0  0  0  0  0  0  0  0
    6.0980   10.5560   16.2140 H   0  0  0  0  0  0  0  0  0  0  0  0
    5.9560    8.8720   15.7490 H   0  0  0  0  0  0  0  0  0  0  0  0
    7.5600    9.5510   16.0800 H   0  0  0  0  0  0  0  0  0  0  0  0
    6.9540   13.5300   13.9240 H   0  0  0  0  0  0  0  0  0  0  0  0
    6.5650   12.6830   15.3970 H   0  0  0  0  0  0  0  0  0  0  0  0
    7.3270    9.5980   11.1870 H   0  0  0  0  0  0  0  0  0  0  0  0
 27 26  1  0
 27 16  1  0
 26 14  2  0
  4  3  2  0
  4 22  1  0
  3  1  1  0
 16 29  2  0
 16 28  1  0
 24 11  1  0
 14 15  1  0
 14 28  1  0
 15 22  1  0
 28 13  1  0
 22 12  1  0
  1 11  1  0
  1  2  2  0
 11 18  1  0
 11 23  1  0
 12  2  1  0
 12 25  2  0
  2 20  1  0
 20  9  1  0
  9 10  2  0
  9  8  1  0
 10 17  1  0
  8  7  2  0
 17 21  1  0
 17  6  2  0
  7  6  1  0
  7  5  1  0
  5 19  3  0
  3 30  1  0
  4 31  1  0
  6 32  1  0
  8 33  1  0
 10 34  1  0
 13 35  1  0
 13 36  1  0
 13 37  1  0
 15 38  1  0
 15 39  1  0
 27 40  1  0
M  END
$$$$
