6FN
  CCTOOLS-0919241040

 48 50  0  0  1  0  0  0  0  0999 V2000
    5.3090   -0.7730    0.0910 C   0  0  0  0  0
    6.2780   -0.3270    0.8850 N   0  0  0  0  0
    7.4230   -0.9750    0.9750 C   0  0  0  0  0
    8.3830   -0.4900    1.7930 F   0  0  0  0  0
    7.6670   -2.0830    0.2950 N   0  0  0  0  0
    6.7560   -2.6010   -0.5230 C   0  0  0  0  0
    7.0200   -3.7610   -1.2310 N   0  0  0  0  0
    5.5220   -1.9420   -0.6570 C   0  0  0  0  0
    4.3940   -2.1690   -1.3730 N   0  0  0  0  0
    3.5290   -1.2300   -1.1270 C   0  0  0  0  0
    4.0420   -0.3500   -0.2200 N   0  0  0  0  0
    3.3700    0.8390    0.3110 C   0  0  0  0  0
    3.7530    2.0950   -0.5120 C   0  0  0  0  0
    2.5440    3.0290   -0.2590 C   0  0  0  0  0
    2.8430    3.9650    0.7790 O   0  0  0  0  0
    1.4160    2.0760    0.1840 C   0  0  0  0  0
    1.0000    2.3970    1.5580 C   0  0  0  0  0
    0.6680    2.6530    2.6550 C   0  0  0  0  0
    1.9410    0.7390    0.1280 O   0  0  0  0  0
    0.2230    2.2060   -0.7650 C   0  0  0  0  0
   -0.8590    1.4080   -0.2820 O   0  0  0  0  0
   -2.2780    1.3060   -1.0350 P   0  0  0  0  0
   -3.2960    0.4290   -0.1470 O   0  0  0  0  0
   -4.8900    0.2090   -0.1630 P   0  0  0  0  0
   -5.2630   -1.0830    0.7220 O   0  0  0  0  0
   -6.5410   -2.0590    0.7940 P   0  0  0  0  0
   -7.7800   -1.2600    0.6630 O   0  0  0  0  0
   -6.4650   -3.1310   -0.4060 O   0  0  0  0  0
   -6.5470   -2.8330    2.2050 O   0  0  0  0  0
   -5.6170    1.5080    0.4510 O   0  0  0  0  0
   -5.3460    0.0010   -1.5560 O   0  0  0  0  0
   -2.8340    2.6650   -1.2240 O   0  0  0  0  0
   -2.0760    0.6040   -2.4700 O   0  0  0  0  0
    7.8770   -4.2050   -1.1330 H   0  0  0  0  0
    6.3470   -4.1300   -1.8240 H   0  0  0  0  0
    2.5430   -1.1650   -1.5640 H   0  0  0  0  0
    3.6160    0.9790    1.3630 H   0  0  0  0  0
    4.6740    2.5410   -0.1350 H   0  0  0  0  0
    3.8430    1.8550   -1.5710 H   0  0  0  0  0
    2.2660    3.5500   -1.1750 H   0  0  0  0  0
    3.5850    4.5520    0.5770 H   0  0  0  0  0
    0.3710    2.8820    3.6360 H   0  0  0  0  0
   -0.0890    3.2500   -0.8150 H   0  0  0  0  0
    0.5110    1.8660   -1.7600 H   0  0  0  0  0
   -5.6770   -3.6910   -0.3840 H   0  0  0  0  0
   -7.2920   -3.4400    2.3180 H   0  0  0  0  0
   -5.3660    1.7050    1.3630 H   0  0  0  0  0
   -1.7140   -0.2910   -2.4220 H   0  0  0  0  0
  1 11  1  0  0  0
  2  1  1  0  0  0
  3  2  2  0  0  0
  4  3  1  0  0  0
  5  6  2  0  0  0
  5  3  1  0  0  0
  6  8  1  0  0  0
  7  6  1  0  0  0
  7 34  1  0  0  0
  7 35  1  0  0  0
  8  9  1  0  0  0
  8  1  2  0  0  0
  9 10  2  0  0  0
 10 11  1  0  0  0
 10 36  1  0  0  0
 11 12  1  0  0  0
 12 13  1  0  0  0
 12 19  1  0  0  0
 12 37  1  0  0  0
 13 14  1  0  0  0
 13 38  1  0  0  0
 13 39  1  0  0  0
 14 16  1  0  0  0
 14 15  1  0  0  0
 14 40  1  0  0  0
 15 41  1  0  0  0
 16 20  1  0  0  0
 16 17  1  0  0  0
 17 18  3  0  0  0
 18 42  1  0  0  0
 19 16  1  0  0  0
 20 43  1  0  0  0
 20 44  1  0  0  0
 21 20  1  0  0  0
 22 21  1  0  0  0
 22 33  1  0  0  0
 23 22  1  0  0  0
 23 24  1  0  0  0
 24 31  2  0  0  0
 24 30  1  0  0  0
 25 26  1  0  0  0
 25 24  1  0  0  0
 26 29  1  0  0  0
 26 28  1  0  0  0
 27 26  2  0  0  0
 28 45  1  0  0  0
 29 46  1  0  0  0
 30 47  1  0  0  0
 32 22  2  0  0  0
 33 48  1  0  0  0
M  END
$$$$
