6FN
     RDKit          3D

 48 50  0  0  1  0  0  0  0  0999 V2000
  -40.9500   -2.8060  -27.6160 C   0  0  0  0  0  0  0  0  0  0  0  0
  -39.6480   -2.6500  -27.7050 N   0  0  0  0  0  0  0  0  0  0  0  0
  -39.0520   -2.6960  -28.8960 C   0  0  0  0  0  0  0  0  0  0  0  0
  -37.7000   -2.5340  -28.9760 F   0  0  0  0  0  0  0  0  0  0  0  0
  -39.7580   -2.9010  -30.0170 N   0  0  0  0  0  0  0  0  0  0  0  0
  -41.0790   -3.0660  -29.9890 C   0  0  0  0  0  0  0  0  0  0  0  0
  -41.8340   -3.2850  -31.2110 N   0  0  0  0  0  0  0  0  0  0  0  0
  -41.7050   -3.0200  -28.7650 C   0  0  0  0  0  0  0  0  0  0  0  0
  -43.0560   -3.1440  -28.2850 N   0  0  0  0  0  0  0  0  0  0  0  0
  -42.9570   -2.9950  -26.9420 C   0  0  0  0  0  0  0  0  0  0  0  0
  -41.7680   -2.8200  -26.7150 N   0  0  0  0  0  0  0  0  0  0  0  0
  -41.3430   -2.6280  -25.3800 C   0  0  1  0  0  0  0  0  0  0  0  0
  -41.1520   -1.1620  -25.1240 C   0  0  0  0  0  0  0  0  0  0  0  0
  -42.3530   -0.7700  -24.4110 C   0  0  1  0  0  0  0  0  0  0  0  0
  -42.0700    0.3200  -23.4850 O   0  0  0  0  0  0  0  0  0  0  0  0
  -42.8170   -1.9720  -23.6730 C   0  0  2  0  0  0  0  0  0  0  0  0
  -42.2140   -2.0200  -22.2870 C   0  0  0  0  0  0  0  0  0  0  0  0
  -41.7540   -2.0640  -21.1950 C   0  0  0  0  0  0  0  0  0  0  0  0
  -42.3880   -3.1430  -24.4350 O   0  0  0  0  0  0  0  0  0  0  0  0
  -44.3390   -1.9370  -23.5490 C   0  0  0  0  0  0  0  0  0  0  0  0
  -44.9270   -2.0260  -24.8120 O   0  0  0  0  0  0  0  0  0  0  0  0
  -46.2370   -1.0710  -25.1060 P   0  0  1  0  0  0  0  0  0  0  0  0
  -45.7390    0.4590  -25.4570 O   0  0  0  0  0  0  0  0  0  0  0  0
  -45.5060    1.6160  -24.3080 P   0  0  1  0  0  0  0  0  0  0  0  0
  -46.4880    2.9000  -24.6220 O   0  0  0  0  0  0  0  0  0  0  0  0
  -48.1210    2.8180  -24.4140 P   0  0  0  0  0  0  0  0  0  0  0  0
  -48.8150    2.6470  -25.6880 O   0  0  0  0  0  0  0  0  0  0  0  0
  -48.6570    4.1570  -23.6170 O   0  0  0  0  0  0  0  0  0  0  0  0
  -48.4920    1.5890  -23.7160 O   0  0  0  0  0  0  0  0  0  0  0  0
  -45.7490    1.0870  -22.9670 O   0  0  0  0  0  0  0  0  0  0  0  0
  -44.1040    2.0180  -24.2180 O   0  0  0  0  0  0  0  0  0  0  0  0
  -47.0870   -1.6180  -26.1600 O   0  0  0  0  0  0  0  0  0  0  0  0
  -47.1550   -1.0780  -23.9700 O   0  0  0  0  0  0  0  0  0  0  0  0
  -41.7244   -3.4055  -30.0543 H   0  0  0  0  0  0  0  0  0  0  0  0
  -40.8834   -3.6793  -32.4105 H   0  0  0  0  0  0  0  0  0  0  0  0
  -43.9071   -3.2999  -26.1804 H   0  0  0  0  0  0  0  0  0  0  0  0
  -40.4765   -3.2369  -25.3622 H   0  0  0  0  0  0  0  0  0  0  0  0
  -40.8551   -0.5332  -26.3280 H   0  0  0  0  0  0  0  0  0  0  0  0
  -40.8777   -0.6015  -26.3848 H   0  0  0  0  0  0  0  0  0  0  0  0
  -42.1284   -1.3774  -23.3364 H   0  0  0  0  0  0  0  0  0  0  0  0
  -42.8279    1.0591  -23.5582 H   0  0  0  0  0  0  0  0  0  0  0  0
  -41.1908   -2.0452  -20.2547 H   0  0  0  0  0  0  0  0  0  0  0  0
  -43.5927   -2.7700  -23.1400 H   0  0  0  0  0  0  0  0  0  0  0  0
  -44.3479   -1.2071  -22.3149 H   0  0  0  0  0  0  0  0  0  0  0  0
  -48.0118    4.3670  -22.9683 H   0  0  0  0  0  0  0  0  0  0  0  0
  -47.7616    1.3908  -23.1620 H   0  0  0  0  0  0  0  0  0  0  0  0
  -44.9186    1.1522  -22.5307 H   0  0  0  0  0  0  0  0  0  0  0  0
  -46.6372   -1.0599  -23.1878 H   0  0  0  0  0  0  0  0  0  0  0  0
  1 11  1  0
  2  1  2  0
  3  2  1  0
  4  3  1  0
  5  6  1  0
  5  3  2  0
  6  8  2  0
  7  6  1  0
  7 34  1  0
  7 35  1  0
  8  9  1  0
  8  1  1  0
  9 10  2  0
 10 11  1  0
 10 36  1  0
 11 12  1  0
 12 13  1  0
 12 19  1  0
 12 37  1  6
 13 14  1  0
 13 38  1  0
 13 39  1  0
 14 16  1  0
 14 15  1  0
 14 40  1  6
 15 41  1  0
 16 20  1  0
 16 17  1  1
 17 18  3  0
 18 42  1  0
 19 16  1  0
 20 43  1  0
 20 44  1  0
 21 20  1  0
 22 21  1  1
 22 33  1  0
 23 22  1  0
 24 23  1  6
 24 31  2  0
 24 30  1  0
 25 26  1  0
 25 24  1  0
 26 29  1  0
 26 28  1  0
 27 26  2  0
 28 45  1  0
 29 46  1  0
 30 47  1  0
 32 22  2  0
 33 48  1  0
M  END
