
     RDKit          3D

 40 42  0  0  0  0  0  0  0  0999 V2000
   73.9130   80.5150   64.7260 C   0  0  0  0  0  0  0  0  0  0  0  0
   72.8230   81.5170   64.7100 C   0  0  0  0  0  0  0  0  0  0  0  0
   74.4600   80.0110   66.0080 C   0  0  0  0  0  0  0  0  0  0  0  0
   73.9000   80.5310   67.3240 C   0  0  0  0  0  0  0  0  0  0  0  0
   67.8350   83.8200   63.0390 C   0  0  0  0  0  0  0  0  0  0  0  0
   68.2550   81.3300   62.8850 C   0  0  0  0  0  0  0  0  0  0  0  0
   68.7550   82.6080   63.0600 C   0  0  0  0  0  0  0  0  0  0  0  0
   70.1080   82.8100   63.2570 C   0  0  0  0  0  0  0  0  0  0  0  0
   70.9760   81.7360   63.2940 C   0  0  0  0  0  0  0  0  0  0  0  0
   70.4810   80.4550   63.1100 C   0  0  0  0  0  0  0  0  0  0  0  0
   74.4640   80.0080   63.4040 C   0  0  0  0  0  0  0  0  0  0  0  0
   72.2620   82.0480   66.0250 C   0  0  0  0  0  0  0  0  0  0  0  0
   71.6950   85.1090   68.8100 C   0  0  0  0  0  0  0  0  0  0  0  0
   73.1820   83.0610   69.2200 C   0  0  0  0  0  0  0  0  0  0  0  0
   72.2600   82.0460   68.5570 C   0  0  0  0  0  0  0  0  0  0  0  0
   74.0230   85.0460   70.0290 C   0  0  0  0  0  0  0  0  0  0  0  0
   69.1230   80.2530   62.9100 C   0  0  0  0  0  0  0  0  0  0  0  0
   75.1050   78.8230   63.6000 F   0  0  0  0  0  0  0  0  0  0  0  0
   67.1740   84.7360   63.0270 N   0  0  0  0  0  0  0  0  0  0  0  0
   72.3430   81.9750   63.4820 O   0  0  0  0  0  0  0  0  0  0  0  0
   68.3740   78.6530   62.6770 Cl  0  0  0  0  0  0  0  0  0  0  0  0
   72.8110   81.5470   67.3150 N   0  0  0  0  0  0  0  0  0  0  0  0
   75.3260   80.9330   62.9010 F   0  0  0  0  0  0  0  0  0  0  0  0
   73.4390   79.8300   62.5290 F   0  0  0  0  0  0  0  0  0  0  0  0
   71.3970   82.8540   66.0290 O   0  0  0  0  0  0  0  0  0  0  0  0
   74.4130   82.7490   69.8130 N   0  0  0  0  0  0  0  0  0  0  0  0
   74.9820   83.9330   70.3270 N   0  0  0  0  0  0  0  0  0  0  0  0
   72.8810   84.4410   69.3140 N   0  0  0  0  0  0  0  0  0  0  0  0
   74.1600   86.1890   70.3030 O   0  0  0  0  0  0  0  0  0  0  0  0
   75.2675   79.2641   66.0082 H   0  0  0  0  0  0  0  0  0  0  0  0
   74.2983   80.1576   68.2790 H   0  0  0  0  0  0  0  0  0  0  0  0
   67.1779   81.1717   62.7275 H   0  0  0  0  0  0  0  0  0  0  0  0
   70.4957   83.8314   63.3850 H   0  0  0  0  0  0  0  0  0  0  0  0
   71.1670   79.5952   63.1225 H   0  0  0  0  0  0  0  0  0  0  0  0
   71.0816   85.4545   69.6552 H   0  0  0  0  0  0  0  0  0  0  0  0
   71.9930   85.9719   68.1964 H   0  0  0  0  0  0  0  0  0  0  0  0
   71.1115   84.4068   68.1964 H   0  0  0  0  0  0  0  0  0  0  0  0
   72.1091   81.2005   69.2442 H   0  0  0  0  0  0  0  0  0  0  0  0
   71.3076   82.5476   68.3303 H   0  0  0  0  0  0  0  0  0  0  0  0
   75.8853   84.0169   70.8147 H   0  0  0  0  0  0  0  0  0  0  0  0
 27 26  1  0
 27 16  1  0
 26 14  2  0
  4  3  2  0
  4 22  1  0
  3  1  1  0
 16 29  2  0
 16 28  1  0
 24 11  1  0
 14 15  1  0
 14 28  1  0
 15 22  1  0
 28 13  1  0
 22 12  1  0
  1 11  1  0
  1  2  2  0
 11 18  1  0
 11 23  1  0
 12  2  1  0
 12 25  2  0
  2 20  1  0
 20  9  1  0
  9 10  2  0
  9  8  1  0
 10 17  1  0
  8  7  2  0
 17 21  1  0
 17  6  2  0
  7  6  1  0
  7  5  1  0
  5 19  3  0
  3 30  1  0
  4 31  1  0
  6 32  1  0
  8 33  1  0
 10 34  1  0
 13 35  1  0
 13 36  1  0
 13 37  1  0
 15 38  1  0
 15 39  1  0
 27 40  1  0
M  END
$$$$
