
     RDKit          3D

 46 48  0  0  0  0  0  0  0  0999 V2000
   69.3650   80.7700   61.8690 C   0  0  0  0  0  0  0  0  0  0  0  0
   73.4020   79.0300   65.7120 N   0  0  0  0  0  0  0  0  0  0  0  0
   68.9770   83.0900   61.5540 C   0  0  0  0  0  0  0  0  0  0  0  0
   70.3470   83.3050   61.5670 C   0  0  0  0  0  0  0  0  0  0  0  0
   71.2260   82.2460   61.7330 C   0  0  0  0  0  0  0  0  0  0  0  0
   70.7320   80.9600   61.8870 C   0  0  0  0  0  0  0  0  0  0  0  0
   68.5070   79.5150   62.0070 C   0  0  0  0  0  0  0  0  0  0  0  0
   68.4730   81.8110   61.7040 C   0  0  0  0  0  0  0  0  0  0  0  0
   72.7300   82.5080   61.7430 C   0  0  0  0  0  0  0  0  0  0  0  0
   71.6260   79.8300   62.0600 N   0  0  0  0  0  0  0  0  0  0  0  0
   73.6640   78.2560   64.6750 C   0  0  0  0  0  0  0  0  0  0  0  0
   73.0880   78.5100   63.4770 C   0  0  0  0  0  0  0  0  0  0  0  0
   72.2410   79.5570   63.3480 C   0  0  0  0  0  0  0  0  0  0  0  0
   71.9820   80.3310   64.3870 N   0  0  0  0  0  0  0  0  0  0  0  0
   72.5610   80.0800   65.5840 C   0  0  0  0  0  0  0  0  0  0  0  0
   72.2850   80.9130   66.7450 N   0  0  0  0  0  0  0  0  0  0  0  0
   70.9330   84.9080   66.4780 C   0  0  0  0  0  0  0  0  0  0  0  0
   72.1000   84.6160   67.1600 C   0  0  0  0  0  0  0  0  0  0  0  0
   72.5390   83.3050   67.2430 C   0  0  0  0  0  0  0  0  0  0  0  0
   71.8150   82.2860   66.6440 C   0  0  0  0  0  0  0  0  0  0  0  0
   70.6440   82.5830   65.9670 C   0  0  0  0  0  0  0  0  0  0  0  0
   70.2090   83.8940   65.8820 C   0  0  0  0  0  0  0  0  0  0  0  0
   70.0740   87.4150   66.3050 N   0  0  0  0  0  0  0  0  0  0  0  0
   70.4400   86.3470   66.3790 C   0  0  0  0  0  0  0  0  0  0  0  0
   67.3130   84.3660   60.2720 C   0  0  0  0  0  0  0  0  0  0  0  0
   68.0290   84.2680   61.3710 C   0  0  0  0  0  0  0  0  0  0  0  0
   65.6660   86.4250   59.9410 N   0  0  0  0  0  0  0  0  0  0  0  0
   66.3660   85.5470   60.0840 C   0  0  0  0  0  0  0  0  0  0  0  0
   70.7397   84.3252   61.4445 H   0  0  0  0  0  0  0  0  0  0  0  0
   68.3538   79.2909   63.0730 H   0  0  0  0  0  0  0  0  0  0  0  0
   67.5330   79.6817   61.5237 H   0  0  0  0  0  0  0  0  0  0  0  0
   69.0159   78.6680   61.5237 H   0  0  0  0  0  0  0  0  0  0  0  0
   67.3885   81.6275   61.6922 H   0  0  0  0  0  0  0  0  0  0  0  0
   73.0845   82.5698   62.7825 H   0  0  0  0  0  0  0  0  0  0  0  0
   73.2487   81.6867   61.2269 H   0  0  0  0  0  0  0  0  0  0  0  0
   72.9404   83.4563   61.2269 H   0  0  0  0  0  0  0  0  0  0  0  0
   71.8272   79.2136   61.2597 H   0  0  0  0  0  0  0  0  0  0  0  0
   74.3510   77.4040   64.7848 H   0  0  0  0  0  0  0  0  0  0  0  0
   73.3077   77.8676   62.6115 H   0  0  0  0  0  0  0  0  0  0  0  0
   72.4293   80.5115   67.6825 H   0  0  0  0  0  0  0  0  0  0  0  0
   72.6779   85.4224   67.6351 H   0  0  0  0  0  0  0  0  0  0  0  0
   73.4663   83.0714   67.7867 H   0  0  0  0  0  0  0  0  0  0  0  0
   70.0602   81.7777   65.4973 H   0  0  0  0  0  0  0  0  0  0  0  0
   69.2827   84.1295   65.3375 H   0  0  0  0  0  0  0  0  0  0  0  0
   67.3970   83.5974   59.4896 H   0  0  0  0  0  0  0  0  0  0  0  0
   67.9434   85.0344   62.1554 H   0  0  0  0  0  0  0  0  0  0  0  0
  1  6  2  0
  1  7  1  0
  1  8  1  0
  2 11  2  0
  2 15  1  0
  3  4  1  0
  3  8  2  0
  3 26  1  0
  4  5  2  0
  5  6  1  0
  5  9  1  0
  6 10  1  0
 10 13  1  0
 11 12  1  0
 12 13  2  0
 13 14  1  0
 14 15  2  0
 15 16  1  0
 16 20  1  0
 17 18  2  0
 17 22  1  0
 17 24  1  0
 18 19  1  0
 19 20  2  0
 20 21  1  0
 21 22  2  0
 23 24  3  0
 25 26  2  3
 25 28  1  0
 27 28  3  0
  4 29  1  0
  7 30  1  0
  7 31  1  0
  7 32  1  0
  8 33  1  0
  9 34  1  0
  9 35  1  0
  9 36  1  0
 10 37  1  0
 11 38  1  0
 12 39  1  0
 16 40  1  0
 18 41  1  0
 19 42  1  0
 21 43  1  0
 22 44  1  0
 25 45  1  0
 26 46  1  0
M  END
$$$$
