
     RDKit          3D

 40 42  0  0  0  0  0  0  0  0999 V2000
   10.7020   12.4170   15.6460 C   0  0  0  0  0  0  0  0  0  0  0  0
    9.9030   11.9140   16.6830 C   0  0  0  0  0  0  0  0  0  0  0  0
   10.0560   12.8710   14.3960 C   0  0  0  0  0  0  0  0  0  0  0  0
    8.6850   12.7650   14.2360 C   0  0  0  0  0  0  0  0  0  0  0  0
    9.8220   10.8260   22.6060 C   0  0  0  0  0  0  0  0  0  0  0  0
    9.9450   13.0970   21.5890 C   0  0  0  0  0  0  0  0  0  0  0  0
    9.9490   11.7040   21.4290 C   0  0  0  0  0  0  0  0  0  0  0  0
   10.1070   11.1450   20.1530 C   0  0  0  0  0  0  0  0  0  0  0  0
   10.2260   11.9720   19.0250 C   0  0  0  0  0  0  0  0  0  0  0  0
   10.2180   13.3710   19.1900 C   0  0  0  0  0  0  0  0  0  0  0  0
   12.2130   12.5220   15.8030 C   0  0  0  0  0  0  0  0  0  0  0  0
    8.4290   11.8140   16.4590 C   0  0  0  0  0  0  0  0  0  0  0  0
    6.4490    8.8450   15.5570 C   0  0  0  0  0  0  0  0  0  0  0  0
    6.4040   10.7810   13.8920 C   0  0  0  0  0  0  0  0  0  0  0  0
    6.4400   11.9360   14.8730 C   0  0  0  0  0  0  0  0  0  0  0  0
    6.5290    8.7140   13.0380 C   0  0  0  0  0  0  0  0  0  0  0  0
   10.0790   13.9320   20.4700 C   0  0  0  0  0  0  0  0  0  0  0  0
   12.8260   12.9470   14.6520 F   0  0  0  0  0  0  0  0  0  0  0  0
    9.7670   10.1630   23.4960 N   0  0  0  0  0  0  0  0  0  0  0  0
   10.4950   11.3640   17.8060 O   0  0  0  0  0  0  0  0  0  0  0  0
   10.1110   15.6430   20.6780 Cl  0  0  0  0  0  0  0  0  0  0  0  0
    7.8570   12.2410   15.2460 N   0  0  0  0  0  0  0  0  0  0  0  0
   12.7450   11.3060   16.1390 F   0  0  0  0  0  0  0  0  0  0  0  0
   12.5090   13.4240   16.7940 F   0  0  0  0  0  0  0  0  0  0  0  0
    7.7080   11.3470   17.3520 O   0  0  0  0  0  0  0  0  0  0  0  0
    6.5160   10.9580   12.5890 N   0  0  0  0  0  0  0  0  0  0  0  0
    6.5510    9.6720   12.0540 N   0  0  0  0  0  0  0  0  0  0  0  0
    6.3480    9.4220   14.1990 N   0  0  0  0  0  0  0  0  0  0  0  0
    6.7120    7.5120   12.9130 O   0  0  0  0  0  0  0  0  0  0  0  0
   10.6350   13.2690   13.5740 H   0  0  0  0  0  0  0  0  0  0  0  0
    8.2430   13.0790   13.3000 H   0  0  0  0  0  0  0  0  0  0  0  0
    9.8530   13.5400   22.5720 H   0  0  0  0  0  0  0  0  0  0  0  0
   10.1580   10.0720   20.0250 H   0  0  0  0  0  0  0  0  0  0  0  0
   10.3660   14.0260   18.3420 H   0  0  0  0  0  0  0  0  0  0  0  0
    5.9180    9.4640   16.2810 H   0  0  0  0  0  0  0  0  0  0  0  0
    5.9940    7.8540   15.5800 H   0  0  0  0  0  0  0  0  0  0  0  0
    7.4920    8.7660   15.8640 H   0  0  0  0  0  0  0  0  0  0  0  0
    5.9970   12.8160   14.4080 H   0  0  0  0  0  0  0  0  0  0  0  0
    5.8290   11.7090   15.7470 H   0  0  0  0  0  0  0  0  0  0  0  0
    6.8880    9.4660   11.1110 H   0  0  0  0  0  0  0  0  0  0  0  0
 27 26  1  0
 27 16  1  0
 26 14  2  0
  4  3  2  0
  4 22  1  0
  3  1  1  0
 16 29  2  0
 16 28  1  0
 24 11  1  0
 14 15  1  0
 14 28  1  0
 15 22  1  0
 28 13  1  0
 22 12  1  0
  1 11  1  0
  1  2  2  0
 11 18  1  0
 11 23  1  0
 12  2  1  0
 12 25  2  0
  2 20  1  0
 20  9  1  0
  9 10  2  0
  9  8  1  0
 10 17  1  0
  8  7  2  0
 17 21  1  0
 17  6  2  0
  7  6  1  0
  7  5  1  0
  5 19  3  0
  3 30  1  0
  4 31  1  0
  6 32  1  0
  8 33  1  0
 10 34  1  0
 13 35  1  0
 13 36  1  0
 13 37  1  0
 15 38  1  0
 15 39  1  0
 27 40  1  0
M  END
$$$$
