58460047
  -OEChem-01242615123D

 40 42  0     0  0  0  0  0  0999 V2000
   -2.0571    1.9061    3.2560 Cl  0  0  0  0  0  0  0  0  0  0  0  0
   -0.0210   -4.5245    1.1336 F   0  0  0  0  0  0  0  0  0  0  0  0
   -1.6145   -3.1087    1.5903 F   0  0  0  0  0  0  0  0  0  0  0  0
   -1.6334   -4.1990   -0.2972 F   0  0  0  0  0  0  0  0  0  0  0  0
   -1.9489   -1.2482   -0.7399 O   0  0  0  0  0  0  0  0  0  0  0  0
   -0.2215    0.5949   -1.8190 O   0  0  0  0  0  0  0  0  0  0  0  0
    5.6877    2.1948    1.3975 O   0  0  0  0  0  0  0  0  0  0  0  0
    1.6759   -0.5886   -1.1519 N   0  0  0  0  0  0  0  0  0  0  0  0
    4.4913    1.1247   -0.3136 N   0  0  0  0  0  0  0  0  0  0  0  0
    2.4546    1.8591    0.2425 N   0  0  0  0  0  0  0  0  0  0  0  0
    3.3657    2.3619    1.1228 N   0  0  0  0  0  0  0  0  0  0  0  0
   -5.6915    3.2049   -1.5508 N   0  0  0  0  0  0  0  0  0  0  0  0
    2.5944    0.3894   -1.7235 C   0  0  0  0  0  0  0  0  0  0  0  0
    3.1674    1.1430   -0.5774 C   0  0  0  0  0  0  0  0  0  0  0  0
    0.2981   -0.3731   -1.2645 C   0  0  0  0  0  0  0  0  0  0  0  0
   -0.5839   -1.4242   -0.6502 C   0  0  0  0  0  0  0  0  0  0  0  0
   -0.0403   -2.4918   -0.0386 C   0  0  0  0  0  0  0  0  0  0  0  0
    2.1920   -1.7009   -0.5149 C   0  0  0  0  0  0  0  0  0  0  0  0
    1.3990   -2.6296    0.0281 C   0  0  0  0  0  0  0  0  0  0  0  0
    4.6563    1.9202    0.8021 C   0  0  0  0  0  0  0  0  0  0  0  0
   -0.8352   -3.5914    0.6026 C   0  0  0  0  0  0  0  0  0  0  0  0
    5.5231    0.4179   -1.0480 C   0  0  0  0  0  0  0  0  0  0  0  0
   -2.4652   -0.1202   -0.1683 C   0  0  0  0  0  0  0  0  0  0  0  0
   -3.4104    0.6404   -0.8565 C   0  0  0  0  0  0  0  0  0  0  0  0
   -2.0469    0.2712    1.1035 C   0  0  0  0  0  0  0  0  0  0  0  0
   -3.9374    1.7925   -0.2728 C   0  0  0  0  0  0  0  0  0  0  0  0
   -2.5739    1.4233    1.6871 C   0  0  0  0  0  0  0  0  0  0  0  0
   -3.5192    2.1840    0.9989 C   0  0  0  0  0  0  0  0  0  0  0  0
   -4.9054    2.5719   -0.9780 C   0  0  0  0  0  0  0  0  0  0  0  0
    2.0618    1.0934   -2.3708 H   0  0  0  0  0  0  0  0  0  0  0  0
    3.3407   -0.1311   -2.3279 H   0  0  0  0  0  0  0  0  0  0  0  0
    3.2706   -1.7945   -0.4762 H   0  0  0  0  0  0  0  0  0  0  0  0
    1.8491   -3.4864    0.5161 H   0  0  0  0  0  0  0  0  0  0  0  0
    5.5170    0.7592   -2.0869 H   0  0  0  0  0  0  0  0  0  0  0  0
    5.3111   -0.6538   -1.0260 H   0  0  0  0  0  0  0  0  0  0  0  0
    6.5018    0.6096   -0.6012 H   0  0  0  0  0  0  0  0  0  0  0  0
    3.0744    2.9660    1.8806 H   0  0  0  0  0  0  0  0  0  0  0  0
   -3.7297    0.3274   -1.8483 H   0  0  0  0  0  0  0  0  0  0  0  0
   -1.3237   -0.3200    1.6597 H   0  0  0  0  0  0  0  0  0  0  0  0
   -3.9297    3.0828    1.4551 H   0  0  0  0  0  0  0  0  0  0  0  0
  1 27  1  0  0  0  0
  2 21  1  0  0  0  0
  3 21  1  0  0  0  0
  4 21  1  0  0  0  0
  5 16  1  0  0  0  0
  5 23  1  0  0  0  0
  6 15  2  0  0  0  0
  7 20  2  0  0  0  0
  8 13  1  0  0  0  0
  8 15  1  0  0  0  0
  8 18  1  0  0  0  0
  9 14  1  0  0  0  0
  9 20  1  0  0  0  0
  9 22  1  0  0  0  0
 10 11  1  0  0  0  0
 10 14  2  0  0  0  0
 11 20  1  0  0  0  0
 11 37  1  0  0  0  0
 12 29  3  0  0  0  0
 13 14  1  0  0  0  0
 13 30  1  0  0  0  0
 13 31  1  0  0  0  0
 15 16  1  0  0  0  0
 16 17  2  0  0  0  0
 17 19  1  0  0  0  0
 17 21  1  0  0  0  0
 18 19  2  0  0  0  0
 18 32  1  0  0  0  0
 19 33  1  0  0  0  0
 22 34  1  0  0  0  0
 22 35  1  0  0  0  0
 22 36  1  0  0  0  0
 23 24  1  0  0  0  0
 23 25  2  0  0  0  0
 24 26  2  0  0  0  0
 24 38  1  0  0  0  0
 25 27  1  0  0  0  0
 25 39  1  0  0  0  0
 26 28  1  0  0  0  0
 26 29  1  0  0  0  0
 27 28  2  0  0  0  0
 28 40  1  0  0  0  0
M  END
> <PUBCHEM_COMPOUND_CID>
58460047

> <PUBCHEM_CONFORMER_RMSD>
0.8

> <PUBCHEM_CONFORMER_DIVERSEORDER>
1
121
13
51
181
131
109
123
106
144
125
102
161
137
182
56
46
116
169
95
92
90
49
68
87
74
141
134
150
178
12
156
120
29
126
91
152
72
145
104
147
153
130
149
45
31
140
138
98
122
160
22
88
166
54
94
112
143
69
129
151
139
93
157
11
117
73
58
6
78
155
119
114
101
113
99
15
70
167
177
38
118
175
84
83
100
115
59
89
32
44
171
135
65
85
77
168
111
165
36
52
7
179
82
71
55
76
180
172
23
86
176
53
33
64
132
62
75
66
107
164
110
47
37
81
105
50
127
67
30
28
108
57
79
142
39
146
20
133
128
173
26
136
162
103
16
154
96
124
159
80
148
63
158
27
43
5
19
163
61
25
97
35
18
3
170
21
34
17
42
48
41
60
174
4
8
40
24
9
2
10
14

> <PUBCHEM_MMFF94_PARTIAL_CHARGES>
35
1 -0.18
10 -0.51
11 -0.37
12 -0.56
13 0.36
14 0.45
15 0.62
16 0.09
17 -0.14
18 -0.04
19 -0.15
2 -0.34
20 0.69
21 1.16
22 0.3
23 0.08
24 -0.15
25 -0.15
26 0.07
27 0.18
28 -0.15
29 0.48
3 -0.34
32 0.15
33 0.15
37 0.37
38 0.15
39 0.15
4 -0.34
40 0.15
5 -0.16
6 -0.57
7 -0.57
8 -0.47
9 -0.42

> <PUBCHEM_EFFECTIVE_ROTOR_COUNT>
5

> <PUBCHEM_PHARMACOPHORE_FEATURES>
8
1 11 donor
1 12 acceptor
1 5 acceptor
1 6 acceptor
1 7 acceptor
5 9 10 11 14 20 rings
6 23 24 25 26 27 28 rings
6 8 15 16 17 18 19 rings

> <PUBCHEM_HEAVY_ATOM_COUNT>
29

> <PUBCHEM_ATOM_DEF_STEREO_COUNT>
0

> <PUBCHEM_ATOM_UDEF_STEREO_COUNT>
0

> <PUBCHEM_BOND_DEF_STEREO_COUNT>
0

> <PUBCHEM_BOND_UDEF_STEREO_COUNT>
0

> <PUBCHEM_ISOTOPIC_ATOM_COUNT>
0

> <PUBCHEM_COMPONENT_COUNT>
1

> <PUBCHEM_CACTVS_TAUTO_COUNT>
2

> <PUBCHEM_CONFORMER_ID>
037C078F00000001

> <PUBCHEM_MMFF94_ENERGY>
75.4796

> <PUBCHEM_FEATURE_SELFOVERLAP>
40.603

> <PUBCHEM_SHAPE_FINGERPRINT>
11135609 127 17977645530488120181
11370993 70 18410292505980188365
12160290 23 18052568704581573975
12166972 35 17622993613614124003
12633257 1 18262503828851541930
12788726 201 17610635484685136782
13103583 49 15574721291452763948
13140716 1 18189054209578868855
13965767 371 17968364655056369238
14081887 123 18124044678216618474
14178342 30 18188777291615122462
14468879 13 18041286457124465873
14787075 74 18129657638358899279
17980427 23 17408794424712494553
1813 80 9007049171520040133
21033648 29 18335141981444147564
21304303 282 18266439053581038735
21401589 2 18271813457526518561
21864079 5 17415862205419998465
22122407 14 17622747323221591121
23845131 108 18334010558710274963
2838139 119 17561087964596040248
35225 105 17971492907308081186
376196 1 18272084972357914878
3886686 26 18335410254403820050
392239 28 18056226728385826643
4058900 60 18191035507830307800
469060 322 18190479318909388537
474 4 18267864982501400411
495365 180 18043814186905821805
57124632 79 18190453862094990293
5895379 119 16699498446915688232
6371380 46 18411698747925818502
84936 182 18267869367699809325
9981440 41 17988356074542131314

> <PUBCHEM_SHAPE_MULTIPOLES>
534.34
10.09
4.76
1.98
3.67
5.47
-1.03
-13.24
1.86
-0.83
-1.87
-1.29
-1.15
1.52

> <PUBCHEM_SHAPE_SELFOVERLAP>
1159.974

> <PUBCHEM_SHAPE_VOLUME>
293.9

> <PUBCHEM_COORDINATE_TYPE>
2
5
10

$$$$
