
     RDKit          3D

 40 42  0  0  0  0  0  0  0  0999 V2000
   10.7730   12.8200   15.3770 C   0  0  0  0  0  0  0  0  0  0  0  0
    9.9770   12.2200   16.3540 C   0  0  0  0  0  0  0  0  0  0  0  0
   10.1370   13.2950   14.1240 C   0  0  0  0  0  0  0  0  0  0  0  0
    8.7800   13.1150   13.9110 C   0  0  0  0  0  0  0  0  0  0  0  0
    9.7510   10.8250   22.1850 C   0  0  0  0  0  0  0  0  0  0  0  0
    9.9030   13.1350   21.3190 C   0  0  0  0  0  0  0  0  0  0  0  0
    9.9020   11.7510   21.0800 C   0  0  0  0  0  0  0  0  0  0  0  0
   10.0780   11.2690   19.7730 C   0  0  0  0  0  0  0  0  0  0  0  0
   10.2390   12.1650   18.7000 C   0  0  0  0  0  0  0  0  0  0  0  0
   10.2180   13.5530   18.9460 C   0  0  0  0  0  0  0  0  0  0  0  0
   12.2790   12.9730   15.5740 C   0  0  0  0  0  0  0  0  0  0  0  0
    8.5140   12.0380   16.0900 C   0  0  0  0  0  0  0  0  0  0  0  0
    6.3740    9.0980   15.3170 C   0  0  0  0  0  0  0  0  0  0  0  0
    6.5500   10.9380   13.5540 C   0  0  0  0  0  0  0  0  0  0  0  0
    6.5650   12.1470   14.4700 C   0  0  0  0  0  0  0  0  0  0  0  0
    6.5340    8.8250   12.8190 C   0  0  0  0  0  0  0  0  0  0  0  0
   10.0520   14.0360   20.2540 C   0  0  0  0  0  0  0  0  0  0  0  0
   12.8530   13.6290   14.5170 F   0  0  0  0  0  0  0  0  0  0  0  0
    9.6690   10.1160   23.0850 N   0  0  0  0  0  0  0  0  0  0  0  0
   10.5680   11.6380   17.4580 O   0  0  0  0  0  0  0  0  0  0  0  0
   10.0660   15.7320   20.5580 Cl  0  0  0  0  0  0  0  0  0  0  0  0
    7.9630   12.4920   14.8660 N   0  0  0  0  0  0  0  0  0  0  0  0
   12.8790   11.7480   15.6860 F   0  0  0  0  0  0  0  0  0  0  0  0
   12.5300   13.6980   16.7090 F   0  0  0  0  0  0  0  0  0  0  0  0
    7.8070   11.5030   16.9210 O   0  0  0  0  0  0  0  0  0  0  0  0
    6.7780   11.0290   12.2560 N   0  0  0  0  0  0  0  0  0  0  0  0
    6.7270    9.7150   11.7920 N   0  0  0  0  0  0  0  0  0  0  0  0
    6.3480    9.6100   13.9270 N   0  0  0  0  0  0  0  0  0  0  0  0
    6.5890    7.6060   12.7600 O   0  0  0  0  0  0  0  0  0  0  0  0
   10.7150   13.7750   13.3460 H   0  0  0  0  0  0  0  0  0  0  0  0
    8.3540   13.4610   12.9790 H   0  0  0  0  0  0  0  0  0  0  0  0
    9.7960   13.5160   22.3260 H   0  0  0  0  0  0  0  0  0  0  0  0
   10.1160   10.2040   19.5850 H   0  0  0  0  0  0  0  0  0  0  0  0
   10.3800   14.2600   18.1440 H   0  0  0  0  0  0  0  0  0  0  0  0
    5.8130    9.7560   15.9820 H   0  0  0  0  0  0  0  0  0  0  0  0
    5.9080    8.1150   15.3690 H   0  0  0  0  0  0  0  0  0  0  0  0
    7.4020    9.0170   15.6720 H   0  0  0  0  0  0  0  0  0  0  0  0
    6.1230   12.9960   13.9490 H   0  0  0  0  0  0  0  0  0  0  0  0
    5.9360   11.9680   15.3420 H   0  0  0  0  0  0  0  0  0  0  0  0
    7.1000    9.4100   10.8900 H   0  0  0  0  0  0  0  0  0  0  0  0
 27 26  1  0
 27 16  1  0
 26 14  2  0
  4  3  2  0
  4 22  1  0
  3  1  1  0
 16 29  2  0
 16 28  1  0
 24 11  1  0
 14 15  1  0
 14 28  1  0
 15 22  1  0
 28 13  1  0
 22 12  1  0
  1 11  1  0
  1  2  2  0
 11 18  1  0
 11 23  1  0
 12  2  1  0
 12 25  2  0
  2 20  1  0
 20  9  1  0
  9 10  2  0
  9  8  1  0
 10 17  1  0
  8  7  2  0
 17 21  1  0
 17  6  2  0
  7  6  1  0
  7  5  1  0
  5 19  3  0
  3 30  1  0
  4 31  1  0
  6 32  1  0
  8 33  1  0
 10 34  1  0
 13 35  1  0
 13 36  1  0
 13 37  1  0
 15 38  1  0
 15 39  1  0
 27 40  1  0
M  END
$$$$
